[ALL]
[AEOLUS]
[AMPHINOMUS]
[APHRODITE]
[APOLLO]
[ARES]
[ATHENA]
[CALYPSO]
[CHRONOS]
[CIRCE]
[CYCLOPES]
[CREW]
[ELPENOR]
[ENSEMBLE]
[EURYLOCHUS]
[HEPHAESTUS]
[HERA]
[HERMES]
[LAESTRYGONIANS]
[LOTUS EATERS]
[ODYSSEUS]
[PERIMEDES]
[PENELOPE]
[POLITES]
[POLYPHEMUS]
[POSEIDON]
[SIREN]
[SOLDIER]
[SUITORS]
[TELEMACHUS]
[TIRESIAS]
[WINIONS]
[ZEUS]